examples/Benchmark Systems/IEEE 13 Bus/models/IEEE 13 Bus/linecodes.dss
! Automatically generated by the Typhoon HIL TSE to OpenDSS converter.

new "LINECODE.CONFIG_601" nphases=3 rmatrix=[0.2153  0.0936  0.0982 | 0.0936  0.2097  0.0954 | 0.0982  0.0954  0.2121] xmatrix=[0.6325  0.3117  0.0982 | 0.3117  0.6511  0.2392 | 0.0982  0.2392  0.643] cmatrix=[10.3836  -3.2896  -2.076 | -3.2896  9.823  -1.2225 | -2.076  -1.2225  9.2938]
new "LINECODE.CONFIG_602" nphases=3 rmatrix=[0.4676  0.0982  0.0969 | 0.0982  0.4345  0.0954 | 0.0969  0.0954  0.4621] xmatrix=[0.7341  0.2632  0.3117 | 0.2632  0.7446  0.2392 | 0.3117  0.2392  0.7526] cmatrix=[9.3933  -1.7829  -2.7864 | -1.7829  8.5371  -1.0859 | -2.7864  -1.0859  8.9411]
new "LINECODE.CONFIG_603" nphases=2 rmatrix=[0.8261  0.1284 | 0.1284  0.8226] xmatrix=[0.8371  0.2853 | 0.2853  0.8431] cmatrix=[7.7627  -1.4833 | -1.4833  7.6904]
new "LINECODE.CONFIG_604" nphases=2 rmatrix=[0.8226  0.1284 | 0.1284  0.8261] xmatrix=[0.8431  0.2853 | 0.2853  0.8371] cmatrix=[7.6904  -1.4833 | -1.4833  7.7627]
new "LINECODE.CONFIG_605" nphases=1 rmatrix=[0.8259] xmatrix=[0.8373] cmatrix=[7.4489]
new "LINECODE.CONFIG_606" nphases=3 rmatrix=[0.496  0.1983  0.177 | 0.1983  0.4903  0.1983 | 0.177  0.1983  0.496] xmatrix=[0.2773  0.0204  -0.0089 | 0.0204  0.2511  0.0204 | -0.0089  0.0204  0.2773] cmatrix=[159.6977  0.0  0.0 | 0.0  159.6977  0.0 | 0.0  0.0  159.6977]
new "LINECODE.CONFIG_607" nphases=1 rmatrix=[0.8343] xmatrix=[0.3184] cmatrix=[148.3273]
